T42/data/state_estimation/PT_Dx_01_2030_W_Bd/PT_Dx_01_2030_W_Bd_t21.csv
bus,vm_pu,va_degree,p_mw,q_mvar
1,0.976971,-0.070249,-9.409309,-3.718780
2,0.999552,0.000260,20.491397,6.820098
3,0.977652,-0.070252,0.000060,-0.000030
4,0.976713,-0.068620,-0.000024,-0.000036
5,0.977348,-0.070285,0.000039,0.000009
6,0.977064,-0.069821,-0.026805,-0.013773
7,0.976087,-0.069994,-0.064126,-0.032891
8,0.975296,-0.070085,-0.010131,-0.005204
9,0.975059,-0.070511,-0.375611,-0.192464
10,0.976131,-0.070119,-2.249571,-1.152499
11,0.975360,-0.069797,-0.516136,-0.264432
12,0.973756,-0.071969,-0.002146,-0.001029
13,0.975943,-0.070137,-0.037823,-0.015038
14,0.976817,-0.070824,-1.265631,-0.638256
15,0.974075,-0.073043,-0.017995,-0.009312
16,0.976368,-0.069267,-0.019172,-0.009812
17,0.975529,-0.069907,-0.003261,-0.001640
18,0.976173,-0.072201,-0.009203,-0.004639
19,0.973817,-0.071144,-0.034556,-0.017790
20,0.976765,-0.069854,-0.793417,-0.396460
21,0.973325,-0.072381,-0.000980,-0.000384
22,0.976441,-0.070670,-0.006218,-0.002549
23,0.974484,-0.072148,-0.045151,-0.023066
24,0.973992,-0.071774,-0.080812,-0.031922
25,0.973826,-0.071961,-0.020947,-0.008331
26,0.974926,-0.070158,-0.033315,-0.017102
27,0.976652,-0.069779,-0.003579,-0.001812
28,0.974058,-0.071813,-0.043773,-0.022463
29,0.976890,-0.070287,-0.031354,-0.016064
30,0.976144,-0.069785,-0.134015,-0.068604
31,0.975575,-0.069471,-0.016762,-0.008564
32,0.977103,-0.069803,-0.088815,-0.045517
33,0.975357,-0.071206,-0.384553,-0.186998
34,0.973908,-0.072086,-0.000544,-0.000339
35,0.974004,-0.072939,-0.006460,-0.003365
36,0.975989,-0.069835,-0.007143,-0.003690
37,0.976419,-0.069833,-0.008056,-0.003242
38,0.972658,-0.072705,-0.076585,-0.039289
39,0.975533,-0.070856,-0.101564,-0.052039
40,0.974795,-0.072668,-0.025706,-0.010142
41,0.974925,-0.071960,-0.025858,-0.010298
42,0.974214,-0.071940,-0.002797,-0.001390
43,0.972778,-0.071732,-0.104663,-0.053613
44,0.974059,-0.072457,-0.092342,-0.047395
45,0.973958,-0.072265,-0.003326,-0.001305
46,0.976059,-0.071030,-0.083887,-0.042907
47,0.974005,-0.072028,-0.200574,-0.102788
48,0.975399,-0.070507,-0.001182,-0.000573
49,0.975707,-0.069904,-0.019561,-0.010074
50,0.975914,-0.070478,-0.003374,-0.001887
51,0.976897,-0.069662,-0.014908,-0.005972
52,0.975867,-0.069995,-0.006174,-0.003056
53,0.973943,-0.071706,-0.158628,-0.081216
54,0.976642,-0.069313,-0.010169,-0.003980
55,0.975314,-0.070319,-0.034959,-0.017938
56,0.975385,-0.070438,-0.007953,-0.004126
57,0.977025,-0.070149,-0.008454,-0.004297
58,0.973876,-0.072524,-0.012305,-0.006360
59,0.973611,-0.072059,-0.044108,-0.017474
60,0.973533,-0.071885,-0.026723,-0.010543
61,0.975925,-0.069404,-0.557408,-0.275496
62,0.977134,-0.069630,-0.001099,-0.000547
63,0.973737,-0.071671,-0.001808,-0.000943
64,0.976212,-0.070417,-0.225158,-0.115311
65,0.976355,-0.069696,-0.345207,-0.166764
66,0.977064,-0.070178,-0.288834,-0.147922
67,0.975620,-0.069729,-0.032039,-0.016428
68,0.973917,-0.072973,-0.108331,-0.055518
69,0.975597,-0.071136,-0.029096,-0.011624
70,0.975786,-0.070303,-0.070872,-0.036190
71,0.973798,-0.072816,-0.007807,-0.004002
72,0.974215,-0.072253,-0.025078,-0.012730
73,0.973156,-0.072720,-0.013374,-0.005119
74,0.973292,-0.072853,-0.006883,-0.003547
75,0.974434,-0.071359,-0.093333,-0.047747
76,0.976279,-0.070505,-0.005968,-0.003093
77,0.976112,-0.070174,-0.023739,-0.012134
78,0.976262,-0.070733,-0.141628,-0.072509
79,0.976619,-0.070685,-0.104263,-0.053485
80,0.974233,-0.071751,0.000023,-0.000008
81,0.973846,-0.071796,-0.002739,-0.001396
82,0.976054,-0.070459,-0.006421,-0.003233
83,0.975985,-0.070442,-0.079019,-0.040493
84,0.975953,-0.070386,-0.018531,-0.009472
85,0.974305,-0.071359,-0.009733,-0.004978
86,0.977159,-0.070155,-0.058526,-0.023101
87,0.975446,-0.070380,-0.047497,-0.024474
88,0.975985,-0.069225,-0.018047,-0.009191
89,0.976921,-0.069964,-0.012377,-0.006320
90,0.976898,-0.069957,-0.042912,-0.021954
91,0.973923,-0.072804,-0.032664,-0.016777
92,0.973223,-0.071832,-0.001866,-0.000885
93,0.975399,-0.070494,-0.034842,-0.017850
94,0.973991,-0.072616,-0.057498,-0.029544
95,0.976048,-0.071343,-0.175777,-0.090075
96,0.974486,-0.072720,-0.024105,-0.009597
97,0.973349,-0.072761,-0.015469,-0.007922
98,0.974023,-0.072432,-0.047767,-0.018841
99,0.975655,-0.069883,-0.316778,-0.152231
100,0.975500,-0.069970,-0.020538,-0.010509
101,0.975296,-0.070236,-0.066948,-0.026418
102,0.976452,-0.070608,-0.246496,-0.116299
103,0.975376,-0.070517,-0.057928,-0.022899
104,0.973320,-0.071989,-0.119510,-0.047287
105,0.975427,-0.070168,-0.003017,-0.001545
106,0.975248,-0.070560,0.000052,-0.000060
107,0.975188,-0.069131,0.000023,-0.000060
108,0.976489,-0.069758,-0.000040,0.000062
109,0.976366,-0.071056,0.000079,-0.000045
110,0.973305,-0.072344,0.000048,-0.000059
111,0.973731,-0.072272,0.000031,-0.000041
112,0.977287,-0.069887,0.000060,-0.000003
113,0.976286,-0.070494,-0.000095,-0.000064
114,0.973134,-0.072798,0.000104,0.000027
115,0.973851,-0.072340,-0.000044,0.000006
116,0.976039,-0.070215,-0.000013,0.000032
117,0.974352,-0.071847,0.000075,-0.000112
118,0.976736,-0.070707,-0.000009,-0.000052
119,0.976964,-0.071208,0.000058,0.000025
120,0.976349,-0.070020,-0.000052,0.000011
121,0.977199,-0.070486,0.000051,0.000018
122,0.975670,-0.070567,-0.000025,0.000017
123,0.976632,-0.070357,-0.000101,-0.000048
124,0.975699,-0.070643,0.000134,-0.000018
125,0.976451,-0.070860,0.000007,0.000032
126,0.974560,-0.072243,0.000107,-0.000032
127,0.976553,-0.070841,0.000043,-0.000020
128,0.974640,-0.071357,0.000015,-0.000021
129,0.974324,-0.073045,0.000042,-0.000072
130,0.973668,-0.071665,0.000011,0.000054
131,0.976859,-0.069900,-0.000042,-0.000013
132,0.973354,-0.071527,-0.000061,-0.000050
133,0.975444,-0.070621,-0.000045,-0.000020
134,0.977278,-0.069783,-0.000060,-0.000069
135,0.974149,-0.072262,0.000066,-0.000091
136,0.973563,-0.071667,-0.000007,-0.000012
137,0.974799,-0.071820,-0.000038,-0.000068
138,0.974657,-0.072143,-0.000027,-0.000030
139,0.972780,-0.071949,0.000030,0.000033
140,0.976090,-0.070458,0.000042,0.000021
141,0.973272,-0.072422,0.000014,0.000016
142,0.973805,-0.072667,-0.000059,-0.000041
143,0.975426,-0.072125,0.000044,-0.000049
144,0.975745,-0.071078,-0.000023,-0.000060
145,0.976648,-0.070601,0.000073,0.000056
146,0.976232,-0.070855,-0.000038,0.000056
147,0.974910,-0.070733,0.000009,0.000114
148,0.975674,-0.070362,0.000079,-0.000004
149,0.974139,-0.072351,-0.000006,0.000015
150,0.974429,-0.071514,0.000026,0.000032
151,0.975894,-0.070759,-0.000066,0.000078
152,0.975900,-0.070422,0.000035,-0.000093
153,0.976704,-0.070221,0.000077,-0.000004
154,0.975921,-0.069910,-0.000064,-0.000040
155,0.973633,-0.072014,0.000007,0.000007
156,0.975558,-0.070315,-0.000021,0.000039
157,0.977656,-0.070331,0.000061,-0.000049
158,0.975770,-0.070350,0.000016,0.000042
159,0.973703,-0.071771,-0.000055,-0.000045
160,0.977034,-0.070292,0.000032,-0.000052
161,0.975778,-0.070648,0.000000,-0.000056
162,0.974434,-0.071225,-0.000034,-0.000026
163,0.977010,-0.070380,-0.000069,0.000004
164,0.975567,-0.071619,-0.000018,0.000007
165,0.976570,-0.070757,0.000029,0.000007
166,0.977771,-0.069533,0.000060,-0.000057
167,0.972390,-0.071922,-0.000031,-0.000111
168,0.976192,-0.070036,0.000013,0.000040
169,0.977017,-0.070116,-0.000073,-0.000009
170,0.975972,-0.070850,0.000044,0.000050
171,0.973676,-0.072099,-0.000078,0.000023
172,0.973972,-0.071805,0.000024,-0.000009
173,0.975596,-0.070461,0.000006,-0.000019
174,0.973028,-0.072731,-0.000101,-0.000031
175,0.973192,-0.072523,0.000007,-0.000038
176,0.975820,-0.070751,0.000038,-0.000001
177,0.973413,-0.072049,0.000043,0.000141
178,0.973690,-0.071553,-0.000016,-0.000059
179,0.976407,-0.070264,0.000002,0.000074
180,0.976749,-0.070191,0.000044,-0.000032
181,0.973251,-0.072593,0.000096,0.000088
182,0.974315,-0.072763,0.000029,0.000053
183,0.975981,-0.070501,0.000060,0.000009
184,0.975391,-0.070064,-0.000083,0.000085
185,0.976447,-0.069818,-0.000090,0.000055
186,0.974514,-0.072245,0.000003,0.000046
187,0.975523,-0.070763,-0.000031,-0.000108
188,0.974195,-0.071402,0.000050,0.000121
189,0.976674,-0.069903,0.000079,-0.000129
190,0.974135,-0.071710,-0.000093,-0.000003
191,0.977179,-0.070787,-0.000049,0.000006
